 Abaqus/Standard 2020                  DATE 10-Nov-2022 TIME 14:30:22
 SUMMARY OF JOB INFORMATION:
 STEP  INC ATT SEVERE EQUIL TOTAL  TOTAL      STEP       INC OF       DOF    IF
               DISCON ITERS ITERS  TIME/    TIME/LPF    TIME/LPF    MONITOR RIKS
               ITERS               FREQ
   1     1   1U    5     1     6  0.00       0.00       0.1000    
   1     1   2U    5     0     5  0.00       0.00       0.02500   
   1     1   3     3     2     5  0.00625    0.00625    0.006250  
   1     2   1     0     4     4  0.0125     0.0125     0.006250  
   1     3   1U    4     0     4  0.0125     0.0125     0.009375  
   1     3   2     3     2     5  0.0148     0.0148     0.002344  
   1     4   1     0     3     3  0.0184     0.0184     0.003516  
   1     5   1     0     2     2  0.0236     0.0236     0.005273  
   1     6   1     3     2     5  0.0315     0.0315     0.007910  
   1     7   1     3     3     6  0.0434     0.0434     0.01187   
   1     8   1     5     3     8  0.0612     0.0612     0.01780   
   1     9   1     5     3     8  0.0879     0.0879     0.02670   
   1    10   1     5     3     8  0.128      0.128      0.04005   
   1    11   1U    4     0     4  0.128      0.128      0.06007   
   1    11   2     7     3    10  0.143      0.143      0.01502   
   1    12   1     1     5     6  0.165      0.165      0.02253   
   1    13   1     1     4     5  0.188      0.188      0.02253   
   1    14   1     1     3     4  0.211      0.211      0.02253   
   1    15   1     6     3     9  0.244      0.244      0.03379   
   1    16   1     5     2     7  0.295      0.295      0.05068   
   1    17   1     5     6    11  0.371      0.371      0.07602   
   1    18   1U    5     3     8  0.371      0.371      0.07602   
   1    18   2     4     2     6  0.390      0.390      0.01901   
   1    19   1     1     3     4  0.409      0.409      0.01901   
   1    20   1     1     2     3  0.438      0.438      0.02851   
   1    21   1     2     3     5  0.480      0.480      0.04276   
   1    22   1     1     3     4  0.544      0.544      0.06414   
   1    23   1     3     5     8  0.641      0.641      0.09622   
   1    24   1     1     4     5  0.737      0.737      0.09622   
   1    25   1     1     4     5  0.833      0.833      0.09622   
   1    26   1     1     4     5  0.933      0.933      0.1000    
   1    27   1     1     3     4  1.00       1.00       0.06689   
   2     1   1U    8     1     9  1.00       0.00       0.1000    
   2     1   2     3     1     4  1.02       0.0250     0.02500   
   2     2   1     1     1     2  1.05       0.0500     0.02500   
   2     3   1     1     2     3  1.09       0.0875     0.03750   
   2     4   1     2     2     4  1.14       0.144      0.05625   
   2     5   1U    3     5     8  1.14       0.144      0.08438   
   2     5   2     2     1     3  1.16       0.165      0.02109   
   2     6   1     3     1     4  1.20       0.196      0.03164   
   2     7   1     1     3     4  1.24       0.244      0.04746   
   2     8   1     0     2     2  1.32       0.315      0.07119   
   2     9   1     0     1     1  1.42       0.415      0.1000    
   2    10   1     0     1     1  1.52       0.515      0.1000    
   2    11   1     0     1     1  1.62       0.615      0.1000    
   2    12   1     0     1     1  1.72       0.715      0.1000    
   2    13   1     0     1     1  1.82       0.815      0.1000    
   2    14   1     0     1     1  1.92       0.915      0.1000    
   2    15   1     0     1     1  2.00       1.00       0.08486   
                          
 THE ANALYSIS HAS COMPLETED SUCCESSFULLY
