*Heading
** Job name: indenter-pl Model name: Model-1
** Generated by: Abaqus/CAE 2020
*Preprint, echo=NO, model=NO, history=NO, contact=NO
**
** PARTS
**
*Part, name=Indenter
*Node
      1,           0.,           0.
      2, 0.0707106814,  0.029289322
      3,          0.5,  0.458578646
      4, 0.00713391835, 0.000254788552
      5, 0.0142314835, 0.00101785583
      6, 0.0212565288, 0.00228531333
      7, 0.0281732548, 0.00405070279
      8, 0.0349464193, 0.00630502729
      9, 0.0415415019, 0.00903680082
     10, 0.0479248986, 0.0122321006
     11, 0.0540640801, 0.0158746466
     12, 0.0599277653, 0.0199458767
     13, 0.0654860735, 0.0244250428
     14,  0.075645037, 0.0342236832
     15, 0.0805794001, 0.0391580425
     16, 0.0855137557, 0.0440924019
     17, 0.0904481187, 0.0490267612
     18, 0.0953824818, 0.0539611205
     19,  0.100316837, 0.0588954836
     20,    0.1052512, 0.0638298392
** ... 79 like lines cut
*Element, type=RAX2
 1,  1,  4
 2,  4,  5
 3,  5,  6
 4,  6,  7
 5,  7,  8
 6,  8,  9
 7,  9, 10
 8, 10, 11
 9, 11, 12
10, 12, 13
11, 13,  2
12,  2, 14
13, 14, 15
14, 15, 16
15, 16, 17
16, 17, 18
17, 18, 19
18, 19, 20
19, 20, 21
20, 21, 22
** ... 78 like lines cut
*Node
    100,           0.,  0.100000001,           0.
*Nset, nset=Indenter-RefPt_, internal
100, 
*Nset, nset=rp
 100,
*Elset, elset=_contact_SNEG, internal, generate
  1,  98,   1
*Surface, type=ELEMENT, name=contact
_contact_SNEG, SNEG
*Elset, elset=Indenter, generate
  1,  98,   1
*End Part
**  
*Part, name=Specimen
*Node
      1,  0.300000012, -0.150000006
      2,  0.300000012,           0.
      3,           0.,           0.
      4,           0., -0.150000006
      5,           0.,         -0.5
      6,           1.,         -0.5
      7,           1.,           0.
      8,  0.300000012, -0.142857149
      9,  0.300000012, -0.135714293
     10,  0.300000012, -0.128571436
     11,  0.300000012, -0.121428572
     12,  0.300000012, -0.114285715
     13,  0.300000012, -0.107142858
     14,  0.300000012, -0.100000001
     15,  0.300000012, -0.0928571448
     16,  0.300000012, -0.0857142881
     17,  0.300000012, -0.0785714313
     18,  0.300000012, -0.0714285746
     19,  0.300000012, -0.0642857179
     20,  0.300000012, -0.0571428575
** ... 1521 like lines cut
*Element, type=CAX4R
  1,    1,    8,  181,  131
  2,    8,    9,  182,  181
  3,    9,   10,  183,  182
  4,   10,   11,  184,  183
  5,   11,   12,  185,  184
  6,   12,   13,  186,  185
  7,   13,   14,  187,  186
  8,   14,   15,  188,  187
  9,   15,   16,  189,  188
 10,   16,   17,  190,  189
 11,   17,   18,  191,  190
 12,   18,   19,  192,  191
 13,   19,   20,  193,  192
 14,   20,   21,  194,  193
 15,   21,   22,  195,  194
 16,   22,   23,  196,  195
 17,   23,   24,  197,  196
 18,   24,   25,  198,  197
 19,   25,   26,  199,  198
 20,   26,   27,  200,  199
** ... 1450 like lines cut
*Element, type=CAX3
904, 1480, 1120, 1134
905, 1171, 1105, 1128
906,  180, 1466,  179
907, 1166, 1092, 1100
908, 1170, 1107, 1131
909, 1219, 1492, 1197
910, 1460, 1168, 1147
911, 1204, 1178, 1163
912, 1208, 1196, 1195
913, 1273, 1251, 1260
914, 1249, 1228, 1237
915, 1537, 1250, 1235
916, 1257,  179, 1466
917, 1266, 1248, 1263
918, 1292, 1282, 1265
919, 1088, 1462, 1054
920, 1169, 1145, 1458
921, 1476, 1086, 1505
922, 1494, 1162, 1172
923, 1513, 1496, 1164
924, 1475, 1504, 1089
925, 1173, 1156, 1171
926, 1527, 1190, 1191
*Nset, nset=all, generate
    1,  1541,     1
*Elset, elset=all, generate
    1,  1493,     1
*Nset, nset=xsym
   3,   4,   5,  70,  71,  72,  73,  74,  75,  76,  77,  78,  79,  80,  81,  82
  83,  84,  85,  86,  87,  88,  89, 132, 133, 134, 135, 136, 137, 138
*Elset, elset=xsym
  883,  884,  885,  886,  887,  888,  889,  890,  891,  892,  893,  894,  895,  896,  897,  898
  899,  900,  901,  902,  903,  947,  979, 1152, 1238, 1241, 1292, 1314, 1347
*Nset, nset=ysym
   5,   6, 139, 140, 141, 142, 143, 144, 145, 146, 147, 148, 149, 150, 151, 152
 153, 154, 155, 156, 157
*Elset, elset=ysym
  979,  980,  986,  989,  990, 1233, 1301, 1321, 1333, 1340, 1341, 1342, 1344, 1346, 1352, 1356
 1359, 1367, 1371, 1379
*Elset, elset=_contact_S2, internal, generate
  21,  903,   21
*Surface, type=ELEMENT, name=contact
_contact_S2, S2
** Section: PET
*Solid Section, elset=all, material=PET
,
*End Part
**  
**
** ASSEMBLY
**
*Assembly, name=Assembly
**  
*Instance, name=Indenter, part=Indenter
*End Instance
**  
*Instance, name=Specimen, part=Specimen
*End Instance
**  
*Rigid Body, ref node=Indenter.Indenter-RefPt_, elset=Indenter.Indenter
*End Assembly
** 
** MATERIALS
** 
*Material, name=PET
*Elastic
3000., 0.35
*Plastic
 30.,0.
630.,1.
** 
** INTERACTION PROPERTIES
** 
*Surface Interaction, name=int-prop
1.,
*Friction, slip tolerance=0.005
 0.3,
*Surface Behavior, augmented Lagrange
** 
** BOUNDARY CONDITIONS
** 
** Name: xsym Type: Displacement/Rotation
*Boundary
Specimen.xsym, 1, 1
** Name: ysym Type: Displacement/Rotation
*Boundary
Specimen.ysym, 2, 2
** 
** INTERACTIONS
** 
** Interaction: contact
*Contact Pair, interaction=int-prop, type=SURFACE TO SURFACE
Specimen.contact, Indenter.contact
** ----------------------------------------------------------------
** 
** STEP: load-u
** 
*Step, name=load-u, nlgeom=YES, inc=1000
*Static
0.1, 1., 1e-08, 0.1
** 
** BOUNDARY CONDITIONS
** 
** Name: uy Type: Displacement/Rotation
*Boundary
Indenter.rp, 1, 1
Indenter.rp, 2, 2, -0.1
Indenter.rp, 6, 6
** 
** OUTPUT REQUESTS
** 
*Restart, write, frequency=0
** 
** FIELD OUTPUT: F-Output-1
** 
*Output, field, variable=PRESELECT
** 
** HISTORY OUTPUT: H-Output-RP
** 
*Output, history
*Node Output, nset=Indenter.rp
CF2, RF2, U2
** 
** HISTORY OUTPUT: H-Output-1
** 
*Output, history, variable=PRESELECT
*End Step
** ----------------------------------------------------------------
** 
** STEP: unload
** 
*Step, name=unload, nlgeom=YES, inc=1000
*Static
0.1, 1., 1e-08, 0.1
** 
** BOUNDARY CONDITIONS
** 
** Name: uy Type: Displacement/Rotation
*Boundary
Indenter.rp, 2, 2
** 
** OUTPUT REQUESTS
** 
*Restart, write, frequency=0
** 
** FIELD OUTPUT: F-Output-1
** 
*Output, field, variable=PRESELECT
** 
** HISTORY OUTPUT: H-Output-RP
** 
*Output, history
*Node Output, nset=Indenter.rp
CF2, RF2, U2
** 
** HISTORY OUTPUT: H-Output-1
** 
*Output, history, variable=PRESELECT
*End Step
